<?xml version="1.0" encoding="UTF-8"?>
<!DOCTYPE network SYSTEM "http://www.matsim.org/files/dtd/network_v2.dtd">
<network>

    <!-- ====================================================================== -->

    <nodes>
        <node id="node_-119.82811_39.69298" x="-119.828113" y="39.692977" >
        </node>
        <node id="node_-119.82852_39.69297" x="-119.828517" y="39.692968" >
        </node>
        <node id="node_-119.82950_39.69453" x="-119.8294978" y="39.6945323" >
        </node>
        <node id="node_-119.82951_39.69380" x="-119.8295108" y="39.6938015" >
        </node>
        <node id="node_-119.82951_39.69389" x="-119.8295078" y="39.693894" >
        </node>
        <node id="node_-119.82951_39.69393" x="-119.8295072" y="39.6939278" >
        </node>
        <node id="node_-119.82951_39.69471" x="-119.8295072" y="39.6947061" >
        </node>
        <node id="node_-119.82952_39.69356" x="-119.8295183" y="39.6935621" >
        </node>
        <node id="node_-119.82952_39.69490" x="-119.8295214" y="39.6948992" >
        </node>
        <node id="node_-119.82954_39.69295" x="-119.8295369" y="39.6929494" >
        </node>
        <node id="node_-119.82956_39.69512" x="-119.8295621" y="39.6951236" >
        </node>
        <node id="node_-119.82959_39.69054" x="-119.8295932" y="39.6905362" >
        </node>
        <node id="node_-119.82959_39.69080" x="-119.8295869" y="39.6908043" >
        </node>
        <node id="node_-119.82961_39.69534" x="-119.8296123" y="39.6953396" >
        </node>
        <node id="node_-119.82962_39.68952" x="-119.8296168" y="39.6895238" >
        </node>
        <node id="node_-119.82965_39.68812" x="-119.8296526" y="39.6881229" >
        </node>
        <node id="node_-119.82966_39.68772" x="-119.8296629" y="39.6877222" >
        </node>
        <node id="node_-119.82966_39.69549" x="-119.8296622" y="39.6954911" >
        </node>
        <node id="node_-119.82967_39.68724" x="-119.8296699" y="39.6872378" >
        </node>
        <node id="node_-119.82967_39.68745" x="-119.8296669" y="39.6874493" >
        </node>
        <node id="node_-119.82969_39.68578" x="-119.8296911" y="39.6857768" >
        </node>
        <node id="node_-119.82969_39.69558" x="-119.8296923" y="39.6955809" >
        </node>
        <node id="node_-119.82970_39.68527" x="-119.8297004" y="39.6852726" >
        </node>
        <node id="node_-119.82970_39.68553" x="-119.8296956" y="39.6855299" >
        </node>
        <node id="node_-119.82972_39.68401" x="-119.8297247" y="39.684014" >
        </node>
        <node id="node_-119.82976_39.68223" x="-119.8297645" y="39.6822314" >
        </node>
        <node id="node_-119.82978_39.68154" x="-119.8297811" y="39.6815366" >
        </node>
        <node id="node_-119.82979_39.69581" x="-119.8297911" y="39.6958066" >
        </node>
        <node id="node_-119.82981_39.68023" x="-119.8298135" y="39.6802276" >
        </node>
        <node id="node_-119.82981_39.68028" x="-119.8298125" y="39.6802807" >
        </node>
        <node id="node_-119.82991_39.67671" x="-119.8299111" y="39.6767072" >
        </node>
        <node id="node_-119.82991_39.67678" x="-119.8299091" y="39.6767759" >
        </node>
        <node id="node_-119.82995_39.67495" x="-119.8299468" y="39.67495" >
        </node>
        <node id="node_-119.82998_39.67313" x="-119.8299808" y="39.6731298" >
        </node>
        <node id="node_-119.82998_39.67322" x="-119.8299784" y="39.6732181" >
        </node>
        <node id="node_-119.82999_39.67304" x="-119.8299903" y="39.6730357" >
        </node>
        <node id="node_-119.83002_39.67300" x="-119.8300246" y="39.6730049" >
        </node>
        <node id="node_-119.83008_39.68579" x="-119.830075" y="39.685791" >
        </node>
        <node id="node_-119.83009_39.67299" x="-119.8300891" y="39.6729893" >
        </node>
        <node id="node_-119.83015_39.67299" x="-119.8301549" y="39.6729886" >
        </node>
        <node id="node_-119.83023_39.68028" x="-119.830234" y="39.680278" >
        </node>
        <node id="node_-119.83025_39.68581" x="-119.830252" y="39.685806" >
        </node>
        <node id="node_-119.83037_39.68954" x="-119.830369" y="39.689543" >
        </node>
        <node id="node_-119.83041_39.68029" x="-119.830408" y="39.680289" >
        </node>
        <node id="node_-119.83043_39.68584" x="-119.830429" y="39.685835" >
        </node>
        <node id="node_-119.83045_39.68403" x="-119.83045" y="39.684026" >
        </node>
        <node id="node_-119.83047_39.67300" x="-119.830474" y="39.672996" >
        </node>
        <node id="node_-119.83047_39.68774" x="-119.830471" y="39.687741" >
        </node>
        <node id="node_-119.83056_39.68956" x="-119.830557" y="39.689557" >
        </node>
        <node id="node_-119.83059_39.68032" x="-119.830589" y="39.680315" >
        </node>
        <node id="node_-119.83062_39.68404" x="-119.830623" y="39.68404" >
        </node>
        <node id="node_-119.83065_39.67301" x="-119.830648" y="39.67301" >
        </node>
        <node id="node_-119.83065_39.68776" x="-119.830651" y="39.687759" >
        </node>
        <node id="node_-119.83066_39.68224" x="-119.830657" y="39.682244" >
        </node>
        <node id="node_-119.83075_39.68959" x="-119.830746" y="39.689587" >
        </node>
        <node id="node_-119.83076_39.67671" x="-119.830764" y="39.676714" >
        </node>
        <node id="node_-119.83080_39.68036" x="-119.830795" y="39.680363" >
        </node>
        <node id="node_-119.83080_39.68407" x="-119.830804" y="39.684069" >
        </node>
        <node id="node_-119.83083_39.67304" x="-119.830828" y="39.673039" >
        </node>
        <node id="node_-119.83083_39.68226" x="-119.830827" y="39.682259" >
        </node>
        <node id="node_-119.83083_39.68779" x="-119.830827" y="39.687791" >
        </node>
        <node id="node_-119.83094_39.67673" x="-119.830944" y="39.676728" >
        </node>
        <node id="node_-119.83100_39.68229" x="-119.830997" y="39.682287" >
        </node>
        <node id="node_-119.83102_39.67308" x="-119.831019" y="39.6730815" >
        </node>
        <node id="node_-119.83109_39.67497" x="-119.831091" y="39.674967" >
        </node>
        <node id="node_-119.83113_39.67676" x="-119.831128" y="39.676758" >
        </node>
        <node id="node_-119.83128_39.67498" x="-119.831275" y="39.674981" >
        </node>
        <node id="node_-119.83146_39.67501" x="-119.831462" y="39.675011" >
        </node>
        <node id="node_-119.83149_39.67868" x="-119.831493" y="39.678677" >
        </node>
        <node id="node_-119.83177_39.69163" x="-119.831774" y="39.691634" >
        </node>
        <node id="node_-119.83177_39.69185" x="-119.831765" y="39.691847" >
        </node>
        <node id="node_-119.83180_39.69141" x="-119.831804" y="39.691406" >
        </node>
        <node id="node_-119.83180_39.69289" x="-119.831803" y="39.692892" >
        </node>
        <node id="node_-119.83185_39.69119" x="-119.831851" y="39.691193" >
        </node>
        <node id="node_-119.83192_39.69098" x="-119.831918" y="39.690975" >
        </node>
        <node id="node_-119.83197_39.69084" x="-119.83197" y="39.690839" >
        </node>
        <node id="node_-119.83218_39.67702" x="-119.83218" y="39.677017" >
        </node>
        <node id="node_-119.83233_39.68998" x="-119.832327" y="39.689976" >
        </node>
        <node id="node_-119.83262_39.68638" x="-119.832624" y="39.686376" >
        </node>
        <node id="node_-119.83287_39.67536" x="-119.832867" y="39.675357" >
        </node>
        <node id="node_-119.83299_39.69286" x="-119.832991" y="39.692864" >
        </node>
        <node id="node_-119.83332_39.68469" x="-119.833322" y="39.68469" >
        </node>
        <node id="node_-119.83352_39.67371" x="-119.833522" y="39.6737077" >
        </node>
        <node id="node_-119.83357_39.67372" x="-119.8335747" y="39.6737209" >
        </node>
        <node id="node_-119.83401_39.68303" x="-119.834008" y="39.683029" >
        </node>
        <node id="node_-119.83412_39.67238" x="-119.8341209" y="39.672379" >
        </node>
        <node id="node_-119.83422_39.67218" x="-119.8342213" y="39.6721811" >
        </node>
        <node id="node_-119.83434_39.67196" x="-119.8343373" y="39.6719602" >
        </node>
        <node id="node_-119.83441_39.67183" x="-119.834411" y="39.6718334" >
        </node>
        <node id="node_-119.83446_39.67175" x="-119.8344615" y="39.6717542" >
        </node>
        <node id="node_-119.83446_39.69283" x="-119.8344649" y="39.6928296" >
        </node>
        <node id="node_-119.83454_39.67167" x="-119.834544" y="39.6716682" >
        </node>
        <node id="node_-119.83461_39.67160" x="-119.8346053" y="39.6716043" >
        </node>
        <node id="node_-119.83471_39.68133" x="-119.834712" y="39.68133" >
        </node>
        <node id="node_-119.83535_39.69182" x="-119.835354" y="39.691818" >
        </node>
        <node id="node_-119.83537_39.69173" x="-119.835371" y="39.691729" >
        </node>
        <node id="node_-119.83539_39.69281" x="-119.83539" y="39.692808" >
        </node>
        <node id="node_-119.83541_39.67964" x="-119.835409" y="39.679644" >
        </node>
        <node id="node_-119.83575_39.69082" x="-119.835745" y="39.69082" >
        </node>
        <node id="node_-119.83610_39.67798" x="-119.836096" y="39.677984" >
        </node>
        <node id="node_-119.83643_39.68917" x="-119.836426" y="39.689173" >
        </node>
        <node id="node_-119.83678_39.67632" x="-119.836783" y="39.676324" >
        </node>
        <node id="node_-119.83679_39.69278" x="-119.8367872" y="39.6927751" >
        </node>
        <node id="node_-119.83712_39.68749" x="-119.837124" y="39.687487" >
        </node>
        <node id="node_-119.83746_39.67468" x="-119.837464" y="39.674677" >
        </node>
        <node id="node_-119.83782_39.68580" x="-119.837822" y="39.685801" >
        </node>
        <node id="node_-119.83794_39.69275" x="-119.83794" y="39.692748" >
        </node>
        <node id="node_-119.83823_39.67283" x="-119.838226" y="39.672834" >
        </node>
        <node id="node_-119.83851_39.68414" x="-119.838508" y="39.684141" >
        </node>
        <node id="node_-119.83921_39.68244" x="-119.839211" y="39.682442" >
        </node>
        <node id="node_-119.83985_39.68447" x="-119.8398503" y="39.6844723" >
        </node>
        <node id="node_-119.83991_39.68076" x="-119.839909" y="39.680755" >
        </node>
        <node id="node_-119.84011_39.69244" x="-119.840107" y="39.692437" >
        </node>
        <node id="node_-119.84011_39.69270" x="-119.840113" y="39.692697" >
        </node>
        <node id="node_-119.84013_39.69229" x="-119.840125" y="39.692292" >
        </node>
        <node id="node_-119.84015_39.69367" x="-119.840151" y="39.69367" >
        </node>
        <node id="node_-119.84016_39.69214" x="-119.840162" y="39.692143" >
        </node>
        <node id="node_-119.84025_39.69193" x="-119.840245" y="39.691932" >
        </node>
        <node id="node_-119.84060_39.67910" x="-119.840596" y="39.679095" >
        </node>
        <node id="node_-119.84093_39.69029" x="-119.840927" y="39.690285" >
        </node>
        <node id="node_-119.84093_39.69268" x="-119.840925" y="39.692676" >
        </node>
        <node id="node_-119.84111_39.69266" x="-119.841108" y="39.692658" >
        </node>
        <node id="node_-119.84128_39.67744" x="-119.841282" y="39.677435" >
        </node>
        <node id="node_-119.84129_39.69263" x="-119.841289" y="39.692627" >
        </node>
        <node id="node_-119.84134_39.69261" x="-119.8413433" y="39.6926136" >
        </node>
        <node id="node_-119.84146_39.69258" x="-119.841463" y="39.692584" >
        </node>
        <node id="node_-119.84162_39.68860" x="-119.841624" y="39.688599" >
        </node>
        <node id="node_-119.84164_39.69253" x="-119.841639" y="39.692526" >
        </node>
        <node id="node_-119.84181_39.69246" x="-119.841805" y="39.692456" >
        </node>
        <node id="node_-119.84184_39.69244" x="-119.8418432" y="39.6924359" >
        </node>
        <node id="node_-119.84196_39.67579" x="-119.841964" y="39.675788" >
        </node>
        <node id="node_-119.84196_39.69237" x="-119.841961" y="39.692374" >
        </node>
        <node id="node_-119.84208_39.69230" x="-119.842076" y="39.692303" >
        </node>
        <node id="node_-119.84232_39.68691" x="-119.842322" y="39.686912" >
        </node>
        <node id="node_-119.84240_39.69209" x="-119.8424041" y="39.6920913" >
        </node>
        <node id="node_-119.84242_39.69065" x="-119.842415" y="39.690654" >
        </node>
        <node id="node_-119.84262_39.69072" x="-119.842624" y="39.690723" >
        </node>
        <node id="node_-119.84273_39.67395" x="-119.842726" y="39.673945" >
        </node>
        <node id="node_-119.84282_39.69080" x="-119.842818" y="39.690803" >
        </node>
        <node id="node_-119.84301_39.68525" x="-119.843009" y="39.685252" >
        </node>
        <node id="node_-119.84301_39.69090" x="-119.843005" y="39.690899" >
        </node>
        <node id="node_-119.84318_39.69101" x="-119.843177" y="39.691005" >
        </node>
        <node id="node_-119.84333_39.69112" x="-119.843333" y="39.69112" >
        </node>
        <node id="node_-119.84360_39.69132" x="-119.8435973" y="39.6913213" >
        </node>
        <node id="node_-119.84364_39.68724" x="-119.8436426" y="39.6872374" >
        </node>
        <node id="node_-119.84371_39.68355" x="-119.843711" y="39.683553" >
        </node>
        <node id="node_-119.84418_39.68737" x="-119.8441795" y="39.6873698" >
        </node>
        <node id="node_-119.84435_39.69198" x="-119.8443503" y="39.6919846" >
        </node>
        <node id="node_-119.84441_39.68187" x="-119.844409" y="39.681867" >
        </node>
        <node id="node_-119.84456_39.68932" x="-119.8445614" y="39.6893226" >
        </node>
        <node id="node_-119.84491_39.68941" x="-119.844912" y="39.689409" >
        </node>
        <node id="node_-119.84496_39.68756" x="-119.844956" y="39.687561" >
        </node>
        <node id="node_-119.84501_39.68574" x="-119.845009" y="39.685744" >
        </node>
        <node id="node_-119.84502_39.69032" x="-119.845016" y="39.690323" >
        </node>
        <node id="node_-119.84507_39.68389" x="-119.84507" y="39.683886" >
        </node>
        <node id="node_-119.84509_39.68944" x="-119.845093" y="39.689439" >
        </node>
        <node id="node_-119.84512_39.68204" x="-119.84512" y="39.68204" >
        </node>
        <node id="node_-119.84514_39.68022" x="-119.845142" y="39.680217" >
        </node>
        <node id="node_-119.84515_39.69022" x="-119.84515" y="39.690215" >
        </node>
        <node id="node_-119.84516_39.68760" x="-119.845155" y="39.687595" >
        </node>
        <node id="node_-119.84520_39.68578" x="-119.845201" y="39.685777" >
        </node>
        <node id="node_-119.84522_39.68945" x="-119.8452218" y="39.6894496" >
        </node>
        <node id="node_-119.84523_39.67841" x="-119.845232" y="39.678411" >
        </node>
        <node id="node_-119.84526_39.68392" x="-119.845262" y="39.683918" >
        </node>
        <node id="node_-119.84528_39.68945" x="-119.845276" y="39.689454" >
        </node>
        <node id="node_-119.84528_39.69009" x="-119.845276" y="39.69009" >
        </node>
        <node id="node_-119.84532_39.67843" x="-119.845316" y="39.678429" >
        </node>
        <node id="node_-119.84532_39.68207" x="-119.845319" y="39.682073" >
        </node>
        <node id="node_-119.84535_39.68025" x="-119.845348" y="39.680253" >
        </node>
        <node id="node_-119.84536_39.68762" x="-119.845364" y="39.687615" >
        </node>
        <node id="node_-119.84538_39.68997" x="-119.845378" y="39.689965" >
        </node>
        <node id="node_-119.84540_39.68580" x="-119.845403" y="39.685797" >
        </node>
        <node id="node_-119.84545_39.68946" x="-119.845454" y="39.689456" >
        </node>
        <node id="node_-119.84546_39.68394" x="-119.84546" y="39.683937" >
        </node>
        <node id="node_-119.84547_39.68983" x="-119.845465" y="39.689831" >
        </node>
        <node id="node_-119.84550_39.67846" x="-119.845496" y="39.678457" >
        </node>
        <node id="node_-119.84552_39.68209" x="-119.845521" y="39.682092" >
        </node>
        <node id="node_-119.84554_39.68968" x="-119.845538" y="39.689683" >
        </node>
        <node id="node_-119.84557_39.68027" x="-119.845567" y="39.680274" >
        </node>
        <node id="node_-119.84559_39.68954" x="-119.84559" y="39.689535" >
        </node>
        <node id="node_-119.84561_39.68945" x="-119.845611" y="39.689445" >
        </node>
        <node id="node_-119.84563_39.68930" x="-119.845631" y="39.689302" >
        </node>
        <node id="node_-119.84568_39.68762" x="-119.845678" y="39.687622" >
        </node>
        <node id="node_-119.84573_39.68581" x="-119.845728" y="39.685805" >
        </node>
        <node id="node_-119.84576_39.68449" x="-119.8457633" y="39.6844936" >
        </node>
        <node id="node_-119.84578_39.68395" x="-119.845778" y="39.683945" >
        </node>
        <node id="node_-119.84583_39.68210" x="-119.845828" y="39.682098" >
        </node>
        <node id="node_-119.84588_39.68028" x="-119.845878" y="39.680281" >
        </node>
        <node id="node_-119.84592_39.67867" x="-119.845922" y="39.678671" >
        </node>
        <node id="node_-119.84593_39.67849" x="-119.845934" y="39.678489" >
        </node>
        <node id="node_-119.84595_39.67840" x="-119.845947" y="39.678397" >
        </node>
        <node id="node_-119.84599_39.67821" x="-119.845986" y="39.678205" >
        </node>
        <node id="node_-119.84605_39.67800" x="-119.846049" y="39.677997" >
        </node>
        <node id="node_-119.84644_39.67705" x="-119.846439" y="39.6770491" >
        </node>
        <node id="node_-119.84650_39.67691" x="-119.846497" y="39.676908" >
        </node>
        <node id="node_-119.84685_39.67606" x="-119.846848" y="39.676059" >
        </node>
        <node id="node_-119.84704_39.68397" x="-119.847044" y="39.683965" >
        </node>
        <node id="node_-119.84714_39.68030" x="-119.847139" y="39.680302" >
        </node>
        <node id="node_-119.84726_39.67507" x="-119.847259" y="39.675065" >
        </node>
    </nodes>

    <!-- ====================================================================== -->

    <links capperiod="01:00:00" effectivecellsize="7.5" effectivelanewidth="3.75">
        <link id="link_0" from="node_-119.84441_39.68187" to="node_-119.84371_39.68355" length="0.19676015076097886" freespeed="9.763888888888888" capacity="1436.823813" permlanes="1.0" oneway="1" modes="car" >
        </link>
        <link id="link_1" from="node_-119.84371_39.68355" to="node_-119.84441_39.68187" length="0.19676015076097886" freespeed="9.763888888888888" capacity="1436.823813" permlanes="1.0" oneway="1" modes="car" >
        </link>
        <link id="link_10" from="node_-119.84093_39.69029" to="node_-119.84025_39.69193" length="0.19221039491609246" freespeed="9.763888888888888" capacity="1436.823813" permlanes="1.0" oneway="1" modes="car" >
        </link>
        <link id="link_100" from="node_-119.83002_39.67300" to="node_-119.83009_39.67299" length="0.005786468872387271" freespeed="9.763888888888888" capacity="1436.823813" permlanes="1.0" oneway="1" modes="car" >
        </link>
        <link id="link_101" from="node_-119.83009_39.67299" to="node_-119.83002_39.67300" length="0.005786468872387271" freespeed="9.763888888888888" capacity="1436.823813" permlanes="1.0" oneway="1" modes="car" >
        </link>
        <link id="link_102" from="node_-119.83009_39.67299" to="node_-119.83015_39.67299" length="0.005632149468543263" freespeed="9.763888888888888" capacity="1436.823813" permlanes="1.0" oneway="1" modes="car" >
        </link>
        <link id="link_103" from="node_-119.83015_39.67299" to="node_-119.83009_39.67299" length="0.005632149468543263" freespeed="9.763888888888888" capacity="1436.823813" permlanes="1.0" oneway="1" modes="car" >
        </link>
        <link id="link_104" from="node_-119.83015_39.67299" to="node_-119.83047_39.67300" length="0.027323140144461952" freespeed="9.763888888888888" capacity="1436.823813" permlanes="1.0" oneway="1" modes="car" >
        </link>
        <link id="link_105" from="node_-119.83047_39.67300" to="node_-119.83015_39.67299" length="0.027323140144461952" freespeed="9.763888888888888" capacity="1436.823813" permlanes="1.0" oneway="1" modes="car" >
        </link>
        <link id="link_106" from="node_-119.83047_39.67300" to="node_-119.83065_39.67301" length="0.0149732449578498" freespeed="9.763888888888888" capacity="1436.823813" permlanes="1.0" oneway="1" modes="car" >
        </link>
        <link id="link_107" from="node_-119.83065_39.67301" to="node_-119.83047_39.67300" length="0.0149732449578498" freespeed="9.763888888888888" capacity="1436.823813" permlanes="1.0" oneway="1" modes="car" >
        </link>
        <link id="link_108" from="node_-119.83065_39.67301" to="node_-119.83083_39.67304" length="0.015739485554000253" freespeed="9.763888888888888" capacity="1436.823813" permlanes="1.0" oneway="1" modes="car" >
        </link>
        <link id="link_109" from="node_-119.83083_39.67304" to="node_-119.83065_39.67301" length="0.015739485554000253" freespeed="9.763888888888888" capacity="1436.823813" permlanes="1.0" oneway="1" modes="car" >
        </link>
        <link id="link_11" from="node_-119.84025_39.69193" to="node_-119.84093_39.69029" length="0.19221039491609246" freespeed="9.763888888888888" capacity="1436.823813" permlanes="1.0" oneway="1" modes="car" >
        </link>
        <link id="link_110" from="node_-119.83083_39.67304" to="node_-119.83102_39.67308" length="0.017016447517198666" freespeed="9.763888888888888" capacity="1436.823813" permlanes="1.0" oneway="1" modes="car" >
        </link>
        <link id="link_111" from="node_-119.83102_39.67308" to="node_-119.83083_39.67304" length="0.017016447517198666" freespeed="9.763888888888888" capacity="1436.823813" permlanes="1.0" oneway="1" modes="car" >
        </link>
        <link id="link_112" from="node_-119.83102_39.67308" to="node_-119.83352_39.67371" length="0.22525464823085728" freespeed="9.763888888888888" capacity="1436.823813" permlanes="1.0" oneway="1" modes="car" >
        </link>
        <link id="link_113" from="node_-119.83352_39.67371" to="node_-119.83102_39.67308" length="0.22525464823085728" freespeed="9.763888888888888" capacity="1436.823813" permlanes="1.0" oneway="1" modes="car" >
        </link>
        <link id="link_114" from="node_-119.83352_39.67371" to="node_-119.83357_39.67372" length="0.004743190850333361" freespeed="9.763888888888888" capacity="1436.823813" permlanes="1.0" oneway="1" modes="car" >
        </link>
        <link id="link_115" from="node_-119.83357_39.67372" to="node_-119.83352_39.67371" length="0.004743190850333361" freespeed="9.763888888888888" capacity="1436.823813" permlanes="1.0" oneway="1" modes="car" >
        </link>
        <link id="link_116" from="node_-119.83149_39.67868" to="node_-119.83541_39.67964" length="0.35195523870547973" freespeed="9.763888888888888" capacity="1436.823813" permlanes="1.0" oneway="1" modes="car" >
        </link>
        <link id="link_117" from="node_-119.83541_39.67964" to="node_-119.83149_39.67868" length="0.35195523870547973" freespeed="9.763888888888888" capacity="1436.823813" permlanes="1.0" oneway="1" modes="car" >
        </link>
        <link id="link_118" from="node_-119.83541_39.67964" to="node_-119.83991_39.68076" length="0.4044302811608778" freespeed="9.763888888888888" capacity="1436.823813" permlanes="1.0" oneway="1" modes="car" >
        </link>
        <link id="link_119" from="node_-119.83991_39.68076" to="node_-119.83541_39.67964" length="0.4044302811608778" freespeed="9.763888888888888" capacity="1436.823813" permlanes="1.0" oneway="1" modes="car" >
        </link>
        <link id="link_12" from="node_-119.84025_39.69193" to="node_-119.84016_39.69214" length="0.024513390398522922" freespeed="9.763888888888888" capacity="1436.823813" permlanes="1.0" oneway="1" modes="car" >
        </link>
        <link id="link_120" from="node_-119.83991_39.68076" to="node_-119.84441_39.68187" length="0.4044583594361373" freespeed="9.763888888888888" capacity="1436.823813" permlanes="1.0" oneway="1" modes="car" >
        </link>
        <link id="link_121" from="node_-119.84441_39.68187" to="node_-119.83991_39.68076" length="0.4044583594361373" freespeed="9.763888888888888" capacity="1436.823813" permlanes="1.0" oneway="1" modes="car" >
        </link>
        <link id="link_122" from="node_-119.84441_39.68187" to="node_-119.84512_39.68204" length="0.06381287185766056" freespeed="9.763888888888888" capacity="1436.823813" permlanes="1.0" oneway="1" modes="car" >
        </link>
        <link id="link_123" from="node_-119.84512_39.68204" to="node_-119.84441_39.68187" length="0.06381287185766056" freespeed="9.763888888888888" capacity="1436.823813" permlanes="1.0" oneway="1" modes="car" >
        </link>
        <link id="link_124" from="node_-119.84512_39.68204" to="node_-119.84532_39.68207" length="0.017420387292039673" freespeed="9.763888888888888" capacity="1436.823813" permlanes="1.0" oneway="1" modes="car" >
        </link>
        <link id="link_125" from="node_-119.84532_39.68207" to="node_-119.84512_39.68204" length="0.017420387292039673" freespeed="9.763888888888888" capacity="1436.823813" permlanes="1.0" oneway="1" modes="car" >
        </link>
        <link id="link_126" from="node_-119.84532_39.68207" to="node_-119.84552_39.68209" length="0.0174148853613731" freespeed="9.763888888888888" capacity="1436.823813" permlanes="1.0" oneway="1" modes="car" >
        </link>
        <link id="link_127" from="node_-119.84552_39.68209" to="node_-119.84532_39.68207" length="0.0174148853613731" freespeed="9.763888888888888" capacity="1436.823813" permlanes="1.0" oneway="1" modes="car" >
        </link>
        <link id="link_128" from="node_-119.84552_39.68209" to="node_-119.84583_39.68210" length="0.026280154403413754" freespeed="9.763888888888888" capacity="1436.823813" permlanes="1.0" oneway="1" modes="car" >
        </link>
        <link id="link_129" from="node_-119.84583_39.68210" to="node_-119.84552_39.68209" length="0.026280154403413754" freespeed="9.763888888888888" capacity="1436.823813" permlanes="1.0" oneway="1" modes="car" >
        </link>
        <link id="link_13" from="node_-119.84016_39.69214" to="node_-119.84025_39.69193" length="0.024513390398522922" freespeed="9.763888888888888" capacity="1436.823813" permlanes="1.0" oneway="1" modes="car" >
        </link>
        <link id="link_130" from="node_-119.84273_39.67395" to="node_-119.84196_39.67579" length="0.21505876311096306" freespeed="9.763888888888888" capacity="1436.823813" permlanes="1.0" oneway="1" modes="car" >
        </link>
        <link id="link_131" from="node_-119.84196_39.67579" to="node_-119.84273_39.67395" length="0.21505876311096306" freespeed="9.763888888888888" capacity="1436.823813" permlanes="1.0" oneway="1" modes="car" >
        </link>
        <link id="link_132" from="node_-119.84196_39.67579" to="node_-119.84128_39.67744" length="0.19221411508191022" freespeed="9.763888888888888" capacity="1436.823813" permlanes="1.0" oneway="1" modes="car" >
        </link>
        <link id="link_133" from="node_-119.84128_39.67744" to="node_-119.84196_39.67579" length="0.19221411508191022" freespeed="9.763888888888888" capacity="1436.823813" permlanes="1.0" oneway="1" modes="car" >
        </link>
        <link id="link_134" from="node_-119.84128_39.67744" to="node_-119.84060_39.67910" length="0.19369495057727137" freespeed="9.763888888888888" capacity="1436.823813" permlanes="1.0" oneway="1" modes="car" >
        </link>
        <link id="link_135" from="node_-119.84060_39.67910" to="node_-119.84128_39.67744" length="0.19369495057727137" freespeed="9.763888888888888" capacity="1436.823813" permlanes="1.0" oneway="1" modes="car" >
        </link>
        <link id="link_136" from="node_-119.84060_39.67910" to="node_-119.83991_39.68076" length="0.19372047786260221" freespeed="9.763888888888888" capacity="1436.823813" permlanes="1.0" oneway="1" modes="car" >
        </link>
        <link id="link_137" from="node_-119.83991_39.68076" to="node_-119.84060_39.67910" length="0.19372047786260221" freespeed="9.763888888888888" capacity="1436.823813" permlanes="1.0" oneway="1" modes="car" >
        </link>
        <link id="link_138" from="node_-119.83991_39.68076" to="node_-119.83921_39.68244" length="0.19686639277351908" freespeed="9.763888888888888" capacity="1436.823813" permlanes="1.0" oneway="1" modes="car" >
        </link>
        <link id="link_139" from="node_-119.83921_39.68244" to="node_-119.83991_39.68076" length="0.19686639277351908" freespeed="9.763888888888888" capacity="1436.823813" permlanes="1.0" oneway="1" modes="car" >
        </link>
        <link id="link_14" from="node_-119.84016_39.69214" to="node_-119.84013_39.69229" length="0.016867796659800885" freespeed="9.763888888888888" capacity="1436.823813" permlanes="1.0" oneway="1" modes="car" >
        </link>
        <link id="link_140" from="node_-119.83921_39.68244" to="node_-119.83851_39.68414" length="0.19826720707445722" freespeed="9.763888888888888" capacity="1436.823813" permlanes="1.0" oneway="1" modes="car" >
        </link>